
**** 12/04/23 16:49:22 ******* PSpice Lite (March 2016) ******* ID# 10813 ****

 ** Profile: "SCHEMATIC1-bias"  [ U:\EA1\Practica 8\practica 8-pspicefiles\schematic1\bias.sim ] 


 ****     CIRCUIT DESCRIPTION


******************************************************************************




** Creating circuit file "bias.cir" 
** WARNING: THIS AUTOMATICALLY GENERATED FILE MAY BE OVERWRITTEN BY SUBSEQUENT SIMULATIONS

*Libraries: 
* Profile Libraries :
* Local Libraries :
* From [PSPICE NETLIST] section of C:\Users\user\AppData\Roaming\SPB_Data\cdssetup\OrCAD_PSpice\17.2.0\PSpice.ini file:
.lib "nomd.lib" 

*Analysis directives: 
.AC DEC 1000 10 1M
----------------$
ERROR(ORPSIM-16103): Invalid value
.OPTIONS ADVCONV
.PROBE64 V(alias(*)) I(alias(*)) W(alias(*)) D(alias(*)) NOISE(alias(*)) 
.INC "..\SCHEMATIC1.net" 



**** INCLUDING SCHEMATIC1.net ****
* source PRACTICA 8
R_Rs         VIN N14525  50 TC=0,0 
R_R1         B N17323  7.589k TC=0,0 
R_R2         0 B  510.06 TC=0,0 
R_Rc         C N17323  3.3k TC=0,0 
R_Re         0 E  47.49 TC=0,0 
R_Rl         0 VOUT  47k TC=0,0 
C_C1         N14525 B  10u  TC=0,0 
C_C2         C VOUT  10u  TC=0,0 
V_V1         VIN 0  AC 0
+SIN 0 0.1 5k 0 0 0
V_12v         N17323 0 12
Q_Q2         C B E Q2N2222A

**** RESUMING bias.cir ****
.END
